6
	Energy:       0.7791711
O         -5.77630        2.54776        0.00000
C         -4.61873        1.85394        0.00000
O         -3.43067        2.49416        0.00000
O         -4.64659        0.63476        0.00000
H         -5.78457        3.51498        0.00000
H         -3.37823        3.46000        0.00000
