9
	Energy:       1.6050357
O         -6.25248        1.80869       -0.00278
C         -5.18082        1.22496       -0.00055
C         -3.90337        2.01194       -0.00406
C         -2.69709        1.11969       -0.00058
H         -3.87589        2.65993        0.89797
H         -3.87623        2.65241       -0.91146
O         -1.57989        1.61064       -0.00283
H         -2.79661        0.03832        0.00393
H         -5.17316        0.13905        0.00395
