7
	Energy:       1.3975168
C         -6.77472       -0.30522        0.00000
C         -5.64739        0.41124       -0.00000
O         -4.43440       -0.18463       -0.00000
H         -7.73719        0.19608       -0.00000
H         -6.74566       -1.39041       -0.00000
H         -5.70303        1.49501        0.00000
H         -4.32865       -1.14708       -0.00000
