6
	Energy:       0.1547177
C         -2.80033        0.12323       -0.00000
C         -1.46957        0.17183        0.00000
H         -3.34992        0.17258        0.93422
H         -3.34485        0.03394       -0.93422
H         -0.92504        0.26113        0.93422
H         -0.91998        0.12249       -0.93422
