8
	Energy:       0.9976418
C          0.85337       -0.43726        0.03118
C          1.94322        0.30843       -0.16334
H         -0.13007       -0.02013       -0.15996
H          0.92898       -1.46300        0.38012
C          3.29102       -0.22857        0.08694
H          1.83268        1.33092       -0.51300
O          4.27125        0.47370       -0.09864
H          3.42465       -1.24783        0.43670
