10
	Energy:      31.3248720
C         -2.88060        1.71827        0.08588
C         -4.22530        1.00955       -0.01296
O         -4.01313       -0.34209        0.34841
H         -4.56115        1.00387       -1.07513
H         -4.99830        1.51119        0.60637
O         -2.77712       -0.56782        0.00099
C         -2.04791        0.54329       -0.13073
H         -2.66118        2.08816        1.11038
H         -2.79427        2.52452       -0.67350
O         -0.83354        0.54459       -0.24913
