8
	Energy:       2.7308370
C         -4.76907       -0.54991       -0.00000
C         -3.61383        0.13118       -0.00000
O         -3.61216        1.48298       -0.00000
O         -2.43021       -0.52182       -0.00000
H         -5.72111       -0.02819        0.00000
H         -4.77350       -1.63552        0.00000
H         -4.42730        2.00564       -0.00000
H         -2.36753       -1.48810       -0.00000
