6
	Energy:       0.1542721
O         -4.71559        0.39734        0.00000
O         -3.65598        1.13823        0.00000
C         -2.42996        0.57858        0.00000
O         -1.43857        1.28869        0.00000
H         -2.31715       -0.50141        0.00000
H         -5.46870        1.04058        0.00000
